%MAIN
CALCTYPE = sp
METHOD   = sto-3g
BASIS    = cc-pvtz
HSM      = (SCRF=CPCM, ALPHA=1.2, EPS=80.1510, ORDER=17)
FREQTEMP = 298.15
%END

#single point calculation

%GEOMETRY
0 1
  O           0.00000000000000     -0.00000000000004      0.14989246725861
  H           0.00000000000000      0.75233236437137     -0.44864623362932
  H           0.00000000000000     -0.75233236437133     -0.44864623362930
%END
